examples/smart_ds_smbl_p28u/p28u/scenarios/solar_medium_batteries_low_timeseries/opendss/p28uhs4_1247/LineCodes.dss
New Linecode.3P_OH_Code_3 units=km nphases=3 Rmatrix=(0.22464633333333334 0.05016533333333334 0.05016533333333334 | 0.05016533333333334 0.22464633333333334 0.05016533333333334 | 0.05016533333333334 0.05016533333333334 0.22464633333333334 ) Xmatrix=(0.631065 0.188089 0.188089 | 0.188089 0.631065 0.188089 | 0.188089 0.188089 0.631065 ) normamps=480.0

New Linecode.BREAKER_69KV_3 units=km nphases=3 Rmatrix=(1e-05 0.0 0.0 | 0.0 1e-05 0.0 | 0.0 0.0 1e-05 ) Xmatrix=(1e-05 0.0 0.0 | 0.0 1e-05 0.0 | 0.0 0.0 1e-05 ) normamps=900.0

New Linecode.BREAKER_13KV_3 units=km nphases=3 Rmatrix=(1e-05 0.0 0.0 | 0.0 1e-05 0.0 | 0.0 0.0 1e-05 ) Xmatrix=(1e-05 0.0 0.0 | 0.0 1e-05 0.0 | 0.0 0.0 1e-05 ) normamps=1200.0

New Linecode.DISCONNECT_SWITCH_13KV_3 units=km nphases=3 Rmatrix=(1e-05 0.0 0.0 | 0.0 1e-05 0.0 | 0.0 0.0 1e-05 ) Xmatrix=(1e-05 0.0 0.0 | 0.0 1e-05 0.0 | 0.0 0.0 1e-05 ) normamps=1200.0

New Linecode.DISCONNECT_SWITCH_69KV_3 units=km nphases=3 Rmatrix=(1e-05 0.0 0.0 | 0.0 1e-05 0.0 | 0.0 0.0 1e-05 ) Xmatrix=(1e-05 0.0 0.0 | 0.0 1e-05 0.0 | 0.0 0.0 1e-05 ) normamps=900.0

